Version 4
SHEET 1 880 680
WIRE -336 -208 -480 -208
WIRE -336 -160 -336 -208
WIRE -480 -112 -480 -208
WIRE -48 -96 -224 -96
WIRE -336 -64 -336 -80
WIRE -224 -16 -224 -96
WIRE -160 -16 -224 -16
WIRE -48 0 -48 -96
WIRE -48 0 -96 0
WIRE -16 0 -48 0
WIRE 96 0 64 0
WIRE 144 0 96 0
WIRE 288 0 224 0
WIRE -160 16 -240 16
WIRE -336 80 -336 16
WIRE -240 80 -240 16
WIRE -240 80 -336 80
WIRE -336 96 -336 80
WIRE 96 128 96 0
WIRE 160 128 96 128
WIRE 288 144 288 0
WIRE 288 144 224 144
WIRE 368 144 288 144
WIRE 160 160 96 160
WIRE -336 208 -336 176
WIRE -80 272 -192 272
WIRE 96 272 96 160
WIRE 96 272 0 272
WIRE -192 304 -192 272
WIRE 96 304 96 272
WIRE -192 416 -192 384
WIRE 96 416 96 384
FLAG 368 144 OUT
FLAG -480 -112 0
FLAG 96 416 0
FLAG -192 416 0
FLAG -336 208 0
SYMBOL OpAmps\\opamp 192 80 R0
SYMATTR InstName U1
SYMBOL voltage -336 -64 R180
WINDOW 0 24 96 Left 2
WINDOW 3 24 16 Left 2
SYMATTR InstName VREF
SYMATTR Value 5
SYMBOL voltage -192 288 R0
WINDOW 123 0 0 Left 0
WINDOW 39 0 0 Left 0
SYMATTR InstName Vin
SYMATTR Value 3.3
SYMBOL res 80 -16 R90
WINDOW 0 0 56 VBottom 2
WINDOW 3 32 56 VTop 2
SYMATTR InstName R1
SYMATTR Value 750
SYMBOL res 240 -16 R90
WINDOW 0 0 56 VBottom 2
WINDOW 3 32 56 VTop 2
SYMATTR InstName R2
SYMATTR Value 825
SYMBOL res 80 288 R0
SYMATTR InstName R2*
SYMATTR Value 825
SYMBOL res 16 256 R90
WINDOW 0 0 56 VBottom 2
WINDOW 3 32 56 VTop 2
SYMATTR InstName R1*
SYMATTR Value 750
SYMBOL OpAmps\\opamp -128 -64 R0
SYMATTR InstName U2
SYMBOL res -352 -80 R0
SYMATTR InstName Rd1
SYMATTR Value 10k
SYMBOL res -352 80 R0
SYMATTR InstName rd2
SYMATTR Value 1k
TEXT 296 32 Left 2 !.lib opamp.sub
TEXT 448 216 Left 2 ;.tran 0 10 0
TEXT 448 248 Left 2 !.dc Vin 0.5 3.5 100m
